<routes>
    <vType id="car" vClass="passenger" speedDev="0.2" sigma="0.2" decel="4.5" accel="2.6" maxSpeed="60" length="5"/>

    
<flow id="car0" type="car" departPos="base" number="1" begin="0" end="300" from="-B1" to="-G2"/>
<flow id="car1" type="car" departPos="base" number="1" begin="0" end="300" from="H1" to="A1"/>
<flow id="car2" type="car" departPos="base" number="1" begin="0" end="300" from="-A1" to="G0"/>
<flow id="car3" type="car" departPos="base" number="1" begin="0" end="300" from="H2" to="-C1"/>
<flow id="car4" type="car" departPos="base" number="1" begin="0" end="300" from="C0" to="B0"/>
<flow id="car5" type="car" departPos="base" number="1" begin="0" end="300" from="-D0" to="B0"/>
<flow id="car6" type="car" departPos="base" number="1" begin="0" end="300" from="G1" to="C1"/>
<flow id="car7" type="car" departPos="base" number="1" begin="0" end="300" from="D0" to="H0"/>
<flow id="car8" type="car" departPos="base" number="1" begin="0" end="300" from="-A2" to="F0"/>
<flow id="car9" type="car" departPos="base" number="1" begin="0" end="300" from="-A0" to="-G0"/>
<flow id="car10" type="car" departPos="base" number="1" begin="0" end="300" from="-E1" to="-B1"/>
<flow id="car11" type="car" departPos="base" number="1" begin="0" end="300" from="-B0" to="-E0"/>
<flow id="car12" type="car" departPos="base" number="1" begin="0" end="300" from="-A1" to="E0"/>
<flow id="car13" type="car" departPos="base" number="1" begin="0" end="300" from="-C1" to="-D2"/>
<flow id="car14" type="car" departPos="base" number="1" begin="0" end="300" from="-H0" to="E0"/>
<flow id="car15" type="car" departPos="base" number="1" begin="0" end="300" from="-G2" to="-D2"/>
<flow id="car16" type="car" departPos="base" number="1" begin="0" end="300" from="A2" to="-G1"/>
<flow id="car17" type="car" departPos="base" number="1" begin="0" end="300" from="F0" to="A1"/>
<flow id="car18" type="car" departPos="base" number="1" begin="0" end="300" from="-G1" to="C2"/>
<flow id="car19" type="car" departPos="base" number="1" begin="0" end="300" from="-G0" to="A2"/>
<flow id="car20" type="car" departPos="base" number="1" begin="0" end="300" from="-E2" to="G1"/>
<flow id="car21" type="car" departPos="base" number="1" begin="0" end="300" from="D1" to="E2"/>
<flow id="car22" type="car" departPos="base" number="1" begin="0" end="300" from="B0" to="E1"/>
<flow id="car23" type="car" departPos="base" number="1" begin="0" end="300" from="F1" to="-G1"/>
<flow id="car24" type="car" departPos="base" number="1" begin="0" end="300" from="A1" to="H1"/>
<flow id="car25" type="car" departPos="base" number="1" begin="0" end="300" from="E2" to="D1"/>
<flow id="car26" type="car" departPos="base" number="1" begin="0" end="300" from="B2" to="-F2"/>
<flow id="car27" type="car" departPos="base" number="1" begin="0" end="300" from="A0" to="-F0"/>
<flow id="car28" type="car" departPos="base" number="1" begin="0" end="300" from="D0" to="-C0"/>
<flow id="car29" type="car" departPos="base" number="1" begin="0" end="300" from="A2" to="G2"/>
<flow id="car30" type="car" departPos="base" number="1" begin="0" end="300" from="A1" to="-G2"/>
<flow id="car31" type="car" departPos="base" number="1" begin="0" end="300" from="-H2" to="-D1"/>
<flow id="car32" type="car" departPos="base" number="1" begin="0" end="300" from="B0" to="-H2"/>
<flow id="car33" type="car" departPos="base" number="1" begin="0" end="300" from="E0" to="-D2"/>
<flow id="car34" type="car" departPos="base" number="1" begin="0" end="300" from="-E2" to="H0"/>
<flow id="car35" type="car" departPos="base" number="1" begin="0" end="300" from="-F0" to="-F2"/>
<flow id="car36" type="car" departPos="base" number="1" begin="0" end="300" from="E0" to="-D2"/>
<flow id="car37" type="car" departPos="base" number="1" begin="0" end="300" from="A1" to="A0"/>
<flow id="car38" type="car" departPos="base" number="1" begin="0" end="300" from="-G1" to="-A1"/>
<flow id="car39" type="car" departPos="base" number="1" begin="0" end="300" from="E2" to="-B0"/>
<flow id="car40" type="car" departPos="base" number="1" begin="0" end="300" from="C1" to="-A0"/>
<flow id="car41" type="car" departPos="base" number="1" begin="0" end="300" from="F0" to="-C2"/>
<flow id="car42" type="car" departPos="base" number="1" begin="0" end="300" from="-F1" to="G0"/>
<flow id="car43" type="car" departPos="base" number="1" begin="0" end="300" from="-H0" to="-A2"/>
<flow id="car44" type="car" departPos="base" number="1" begin="0" end="300" from="C1" to="-G0"/>
<flow id="car45" type="car" departPos="base" number="1" begin="0" end="300" from="-C1" to="-C2"/>
<flow id="car46" type="car" departPos="base" number="1" begin="0" end="300" from="-E2" to="C0"/>
<flow id="car47" type="car" departPos="base" number="1" begin="0" end="300" from="-H2" to="E2"/>
<flow id="car48" type="car" departPos="base" number="1" begin="0" end="300" from="H0" to="-E2"/>
<flow id="car49" type="car" departPos="base" number="1" begin="0" end="300" from="-B0" to="C1"/>
<flow id="car50" type="car" departPos="base" number="1" begin="0" end="300" from="-H1" to="G0"/>
<flow id="car51" type="car" departPos="base" number="1" begin="0" end="300" from="H0" to="-F0"/>
<flow id="car52" type="car" departPos="base" number="1" begin="0" end="300" from="D2" to="-D0"/>
<flow id="car53" type="car" departPos="base" number="1" begin="0" end="300" from="C2" to="A2"/>
<flow id="car54" type="car" departPos="base" number="1" begin="0" end="300" from="-B2" to="H1"/>
<flow id="car55" type="car" departPos="base" number="1" begin="0" end="300" from="C1" to="B2"/>
<flow id="car56" type="car" departPos="base" number="1" begin="0" end="300" from="-D1" to="C1"/>
<flow id="car57" type="car" departPos="base" number="1" begin="0" end="300" from="-G1" to="C0"/>
<flow id="car58" type="car" departPos="base" number="1" begin="0" end="300" from="C1" to="-A1"/>
<flow id="car59" type="car" departPos="base" number="1" begin="0" end="300" from="-F1" to="-B1"/>
<flow id="car60" type="car" departPos="base" number="1" begin="0" end="300" from="-D0" to="-H1"/>
<flow id="car61" type="car" departPos="base" number="1" begin="0" end="300" from="H2" to="-H0"/>
<flow id="car62" type="car" departPos="base" number="1" begin="0" end="300" from="F0" to="H0"/>
<flow id="car63" type="car" departPos="base" number="1" begin="0" end="300" from="C1" to="-E2"/>
<flow id="car64" type="car" departPos="base" number="1" begin="0" end="300" from="H0" to="A0"/>
<flow id="car65" type="car" departPos="base" number="1" begin="0" end="300" from="-H1" to="G2"/>
<flow id="car66" type="car" departPos="base" number="1" begin="0" end="300" from="-B1" to="-A2"/>
<flow id="car67" type="car" departPos="base" number="1" begin="0" end="300" from="E2" to="-G1"/>
<flow id="car68" type="car" departPos="base" number="1" begin="0" end="300" from="H1" to="E2"/>
<flow id="car69" type="car" departPos="base" number="1" begin="0" end="300" from="D2" to="-A2"/>
<flow id="car70" type="car" departPos="base" number="1" begin="0" end="300" from="-E2" to="E2"/>
<flow id="car71" type="car" departPos="base" number="1" begin="0" end="300" from="A2" to="-D0"/>
<flow id="car72" type="car" departPos="base" number="1" begin="0" end="300" from="-E2" to="B2"/>
<flow id="car73" type="car" departPos="base" number="1" begin="0" end="300" from="H1" to="C2"/>
<flow id="car74" type="car" departPos="base" number="1" begin="0" end="300" from="G2" to="A1"/>
<flow id="car75" type="car" departPos="base" number="1" begin="0" end="300" from="-G1" to="-C0"/>
<flow id="car76" type="car" departPos="base" number="1" begin="0" end="300" from="G0" to="-E0"/>
<flow id="car77" type="car" departPos="base" number="1" begin="0" end="300" from="-B0" to="-G1"/>
<flow id="car78" type="car" departPos="base" number="1" begin="0" end="300" from="-F0" to="A1"/>
<flow id="car79" type="car" departPos="base" number="1" begin="0" end="300" from="-E2" to="C2"/>
<flow id="car80" type="car" departPos="base" number="1" begin="0" end="300" from="-D0" to="B2"/>
<flow id="car81" type="car" departPos="base" number="1" begin="0" end="300" from="F0" to="-H1"/>
<flow id="car82" type="car" departPos="base" number="1" begin="0" end="300" from="-C1" to="H2"/>
<flow id="car83" type="car" departPos="base" number="1" begin="0" end="300" from="-A2" to="A1"/>
<flow id="car84" type="car" departPos="base" number="1" begin="0" end="300" from="-E2" to="B2"/>
<flow id="car85" type="car" departPos="base" number="1" begin="0" end="300" from="C1" to="D0"/>
<flow id="car86" type="car" departPos="base" number="1" begin="0" end="300" from="-D2" to="B0"/>
<flow id="car87" type="car" departPos="base" number="1" begin="0" end="300" from="B0" to="-A1"/>
<flow id="car88" type="car" departPos="base" number="1" begin="0" end="300" from="C0" to="H2"/>
<flow id="car89" type="car" departPos="base" number="1" begin="0" end="300" from="A1" to="-F1"/>
<flow id="car90" type="car" departPos="base" number="1" begin="0" end="300" from="-E1" to="A2"/>
<flow id="car91" type="car" departPos="base" number="1" begin="0" end="300" from="-F0" to="-A0"/>
<flow id="car92" type="car" departPos="base" number="1" begin="0" end="300" from="-F2" to="F1"/>
<flow id="car93" type="car" departPos="base" number="1" begin="0" end="300" from="G1" to="C2"/>
<flow id="car94" type="car" departPos="base" number="1" begin="0" end="300" from="-C0" to="-F2"/>
<flow id="car95" type="car" departPos="base" number="1" begin="0" end="300" from="-H2" to="-E1"/>
<flow id="car96" type="car" departPos="base" number="1" begin="0" end="300" from="-A0" to="-G0"/>
<flow id="car97" type="car" departPos="base" number="1" begin="0" end="300" from="H1" to="A2"/>
<flow id="car98" type="car" departPos="base" number="1" begin="0" end="300" from="E2" to="-B2"/>
<flow id="car99" type="car" departPos="base" number="1" begin="0" end="300" from="G0" to="B1"/>
</routes>
