<routes>
  <vType id="car" vClass="passenger" speedDev="0.2" sigma="0.2" decel="4.5" accel="2.6" maxSpeed="60" length="5"/>

  <vehicle id="car0" type="car" depart="0" color="1, 0, 0" departPos="stop">
    <route edges="C1"/>
    <stop edge="C1" lane="C1_0" parking="true"/>
    <param key="has.btreceiver.device" value="true"/> 
  </vehicle>
  <flow id="car1" type="car" departPos="base" number="1" begin="0" end="300" from="A0" to="D2">
    <param key="has.btsender.device" value="true"/> 
  </flow>

  <flow id="car2" type="car" departPos="base" number="1" begin="0" end="300" from="C0" to="-H0">
    <param key="has.btsender.device" value="true"/> 
  </flow>

  <flow id="car3" type="car" departPos="base" number="1" begin="0" end="300" from="C0" to="-H0">
    <param key="has.btsender.device" value="true"/> 
  </flow>

  <flow id="car4" type="car" departPos="base" number="1" begin="0" end="300" from="C0" to="-H0">
    <param key="has.btsender.device" value="true"/> 
  </flow>

  <flow id="car5" type="car" departPos="base" number="1" begin="0" end="300" from="C0" to="-H0">
    <param key="has.btsender.device" value="true"/> 
  </flow>

  <flow id="car6" type="car" departPos="base" number="1" begin="0" end="300" from="C0" to="-H0">
    <param key="has.btsender.device" value="true"/> 
  </flow>

  <vehicle id="car10" type="car" depart="0" color="1, 0, 0" departPos="stop">
    <route edges="-H1"/>
    <stop edge="-H1" lane="-H1_0" parking="true"/>
    <param key="has.btreceiver.device" value="true"/> 
  </vehicle>

</routes>