<?xml version="1.0" encoding="UTF-8"?>

<!-- generated on 2022-12-22 06:02:30 by Eclipse SUMO netedit Version 1.14.1
<configuration xmlns:xsi="http://www.w3.org/2001/XMLSchema-instance" xsi:noNamespaceSchemaLocation="http://sumo.dlr.de/xsd/netconvertConfiguration.xsd">

    <input>
        <sumo-net-file value="C:\Users\Nagamoto\Documents\sumo\testgrid\grid11x11.net.xml"/>
    </input>

    <output>
        <output-file value="C:\Users\Nagamoto\Documents\sumo\testgrid\grid11x11.net.xml"/>
    </output>

    <processing>
        <geometry.min-radius.fix.railways value="false"/>
        <geometry.max-grade.fix value="false"/>
        <offset.disable-normalization value="true"/>
        <lefthand value="false"/>
    </processing>

    <junctions>
        <no-turnarounds value="true"/>
        <junctions.corner-detail value="5"/>
        <junctions.limit-turn-speed value="5.5"/>
        <rectangular-lane-cut value="false"/>
    </junctions>

    <pedestrian>
        <walkingareas value="false"/>
    </pedestrian>

</configuration>
-->

<net version="1.9" junctionCornerDetail="5" limitTurnSpeed="5.50" xmlns:xsi="http://www.w3.org/2001/XMLSchema-instance" xsi:noNamespaceSchemaLocation="http://sumo.dlr.de/xsd/net_file.xsd">

    <location netOffset="0.00,0.00" convBoundary="0.00,0.00,1200.00,1200.00" origBoundary="0.00,0.00,1200.00,1200.00" projParameter="!"/>

    <edge id=":L10_0" function="internal">
        <lane id=":L10_0_0" index="0" speed="6.51" length="9.03" shape="1098.40,1007.20 1098.05,1004.75 1097.00,1003.00 1095.25,1001.95 1092.80,1001.60"/>
    </edge>
    <edge id=":L10_1" function="internal">
        <lane id=":L10_1_0" index="0" speed="60.00" length="14.40" shape="1098.40,1007.20 1098.40,992.80"/>
    </edge>
    <edge id=":L10_2" function="internal">
        <lane id=":L10_2_0" index="0" speed="8.00" length="4.07" shape="1098.40,1007.20 1098.95,1003.35 1099.04,1003.20"/>
    </edge>
    <edge id=":L10_3" function="internal">
        <lane id=":L10_3_0" index="0" speed="3.65" length="1.44" shape="1098.40,1007.20 1099.20,1006.00"/>
    </edge>
    <edge id=":L10_16" function="internal">
        <lane id=":L10_16_0" index="0" speed="8.00" length="10.13" shape="1099.04,1003.20 1100.60,1000.60 1103.35,998.95 1107.20,998.40"/>
    </edge>
    <edge id=":L10_17" function="internal">
        <lane id=":L10_17_0" index="0" speed="3.65" length="3.23" shape="1099.20,1006.00 1100.00,1005.60 1100.80,1006.00 1101.60,1007.20"/>
    </edge>
    <edge id=":L10_4" function="internal">
        <lane id=":L10_4_0" index="0" speed="6.51" length="9.03" shape="1107.20,1001.60 1104.75,1001.95 1103.00,1003.00 1101.95,1004.75 1101.60,1007.20"/>
    </edge>
    <edge id=":L10_5" function="internal">
        <lane id=":L10_5_0" index="0" speed="60.00" length="14.40" shape="1107.20,1001.60 1092.80,1001.60"/>
    </edge>
    <edge id=":L10_6" function="internal">
        <lane id=":L10_6_0" index="0" speed="8.00" length="14.19" shape="1107.20,1001.60 1103.35,1001.05 1100.60,999.40 1098.95,996.65 1098.40,992.80"/>
    </edge>
    <edge id=":L10_7" function="internal">
        <lane id=":L10_7_0" index="0" speed="3.65" length="4.67" shape="1107.20,1001.60 1106.00,1000.80 1105.60,1000.00 1106.00,999.20 1107.20,998.40"/>
    </edge>
    <edge id=":L10_8" function="internal">
        <lane id=":L10_8_0" index="0" speed="6.51" length="9.03" shape="1101.60,992.80 1101.95,995.25 1103.00,997.00 1104.75,998.05 1107.20,998.40"/>
    </edge>
    <edge id=":L10_9" function="internal">
        <lane id=":L10_9_0" index="0" speed="60.00" length="14.40" shape="1101.60,992.80 1101.60,1007.20"/>
    </edge>
    <edge id=":L10_10" function="internal">
        <lane id=":L10_10_0" index="0" speed="8.00" length="4.07" shape="1101.60,992.80 1101.05,996.65 1100.96,996.80"/>
    </edge>
    <edge id=":L10_11" function="internal">
        <lane id=":L10_11_0" index="0" speed="3.65" length="1.44" shape="1101.60,992.80 1100.80,994.00"/>
    </edge>
    <edge id=":L10_18" function="internal">
        <lane id=":L10_18_0" index="0" speed="8.00" length="10.13" shape="1100.96,996.80 1099.40,999.40 1096.65,1001.05 1092.80,1001.60"/>
    </edge>
    <edge id=":L10_19" function="internal">
        <lane id=":L10_19_0" index="0" speed="3.65" length="3.23" shape="1100.80,994.00 1100.00,994.40 1099.20,994.00 1098.40,992.80"/>
    </edge>
    <edge id=":L10_12" function="internal">
        <lane id=":L10_12_0" index="0" speed="6.51" length="9.03" shape="1092.80,998.40 1095.25,998.05 1097.00,997.00 1098.05,995.25 1098.40,992.80"/>
    </edge>
    <edge id=":L10_13" function="internal">
        <lane id=":L10_13_0" index="0" speed="60.00" length="14.40" shape="1092.80,998.40 1107.20,998.40"/>
    </edge>
    <edge id=":L10_14" function="internal">
        <lane id=":L10_14_0" index="0" speed="8.00" length="14.19" shape="1092.80,998.40 1096.65,998.95 1099.40,1000.60 1101.05,1003.35 1101.60,1007.20"/>
    </edge>
    <edge id=":L10_15" function="internal">
        <lane id=":L10_15_0" index="0" speed="3.65" length="4.67" shape="1092.80,998.40 1094.00,999.20 1094.40,1000.00 1094.00,1000.80 1092.80,1001.60"/>
    </edge>
    <edge id=":L11_0" function="internal">
        <lane id=":L11_0_0" index="0" speed="6.51" length="9.03" shape="1098.40,1107.20 1098.05,1104.75 1097.00,1103.00 1095.25,1101.95 1092.80,1101.60"/>
    </edge>
    <edge id=":L11_1" function="internal">
        <lane id=":L11_1_0" index="0" speed="60.00" length="14.40" shape="1098.40,1107.20 1098.40,1092.80"/>
    </edge>
    <edge id=":L11_2" function="internal">
        <lane id=":L11_2_0" index="0" speed="8.00" length="4.07" shape="1098.40,1107.20 1098.95,1103.35 1099.04,1103.20"/>
    </edge>
    <edge id=":L11_3" function="internal">
        <lane id=":L11_3_0" index="0" speed="3.65" length="1.44" shape="1098.40,1107.20 1099.20,1106.00"/>
    </edge>
    <edge id=":L11_16" function="internal">
        <lane id=":L11_16_0" index="0" speed="8.00" length="10.13" shape="1099.04,1103.20 1100.60,1100.60 1103.35,1098.95 1107.20,1098.40"/>
    </edge>
    <edge id=":L11_17" function="internal">
        <lane id=":L11_17_0" index="0" speed="3.65" length="3.23" shape="1099.20,1106.00 1100.00,1105.60 1100.80,1106.00 1101.60,1107.20"/>
    </edge>
    <edge id=":L11_4" function="internal">
        <lane id=":L11_4_0" index="0" speed="6.51" length="9.03" shape="1107.20,1101.60 1104.75,1101.95 1103.00,1103.00 1101.95,1104.75 1101.60,1107.20"/>
    </edge>
    <edge id=":L11_5" function="internal">
        <lane id=":L11_5_0" index="0" speed="60.00" length="14.40" shape="1107.20,1101.60 1092.80,1101.60"/>
    </edge>
    <edge id=":L11_6" function="internal">
        <lane id=":L11_6_0" index="0" speed="8.00" length="14.19" shape="1107.20,1101.60 1103.35,1101.05 1100.60,1099.40 1098.95,1096.65 1098.40,1092.80"/>
    </edge>
    <edge id=":L11_7" function="internal">
        <lane id=":L11_7_0" index="0" speed="3.65" length="4.67" shape="1107.20,1101.60 1106.00,1100.80 1105.60,1100.00 1106.00,1099.20 1107.20,1098.40"/>
    </edge>
    <edge id=":L11_8" function="internal">
        <lane id=":L11_8_0" index="0" speed="6.51" length="9.03" shape="1101.60,1092.80 1101.95,1095.25 1103.00,1097.00 1104.75,1098.05 1107.20,1098.40"/>
    </edge>
    <edge id=":L11_9" function="internal">
        <lane id=":L11_9_0" index="0" speed="60.00" length="14.40" shape="1101.60,1092.80 1101.60,1107.20"/>
    </edge>
    <edge id=":L11_10" function="internal">
        <lane id=":L11_10_0" index="0" speed="8.00" length="4.07" shape="1101.60,1092.80 1101.05,1096.65 1100.96,1096.80"/>
    </edge>
    <edge id=":L11_11" function="internal">
        <lane id=":L11_11_0" index="0" speed="3.65" length="1.44" shape="1101.60,1092.80 1100.80,1094.00"/>
    </edge>
    <edge id=":L11_18" function="internal">
        <lane id=":L11_18_0" index="0" speed="8.00" length="10.13" shape="1100.96,1096.80 1099.40,1099.40 1096.65,1101.05 1092.80,1101.60"/>
    </edge>
    <edge id=":L11_19" function="internal">
        <lane id=":L11_19_0" index="0" speed="3.65" length="3.23" shape="1100.80,1094.00 1100.00,1094.40 1099.20,1094.00 1098.40,1092.80"/>
    </edge>
    <edge id=":L11_12" function="internal">
        <lane id=":L11_12_0" index="0" speed="6.51" length="9.03" shape="1092.80,1098.40 1095.25,1098.05 1097.00,1097.00 1098.05,1095.25 1098.40,1092.80"/>
    </edge>
    <edge id=":L11_13" function="internal">
        <lane id=":L11_13_0" index="0" speed="60.00" length="14.40" shape="1092.80,1098.40 1107.20,1098.40"/>
    </edge>
    <edge id=":L11_14" function="internal">
        <lane id=":L11_14_0" index="0" speed="8.00" length="14.19" shape="1092.80,1098.40 1096.65,1098.95 1099.40,1100.60 1101.05,1103.35 1101.60,1107.20"/>
    </edge>
    <edge id=":L11_15" function="internal">
        <lane id=":L11_15_0" index="0" speed="3.65" length="4.67" shape="1092.80,1098.40 1094.00,1099.20 1094.40,1100.00 1094.00,1100.80 1092.80,1101.60"/>
    </edge>
    <edge id=":L2_0" function="internal">
        <lane id=":L2_0_0" index="0" speed="6.51" length="9.03" shape="1098.40,207.20 1098.05,204.75 1097.00,203.00 1095.25,201.95 1092.80,201.60"/>
    </edge>
    <edge id=":L2_1" function="internal">
        <lane id=":L2_1_0" index="0" speed="60.00" length="14.40" shape="1098.40,207.20 1098.40,192.80"/>
    </edge>
    <edge id=":L2_2" function="internal">
        <lane id=":L2_2_0" index="0" speed="8.00" length="4.07" shape="1098.40,207.20 1098.95,203.35 1099.04,203.20"/>
    </edge>
    <edge id=":L2_3" function="internal">
        <lane id=":L2_3_0" index="0" speed="3.65" length="1.44" shape="1098.40,207.20 1099.20,206.00"/>
    </edge>
    <edge id=":L2_16" function="internal">
        <lane id=":L2_16_0" index="0" speed="8.00" length="10.13" shape="1099.04,203.20 1100.60,200.60 1103.35,198.95 1107.20,198.40"/>
    </edge>
    <edge id=":L2_17" function="internal">
        <lane id=":L2_17_0" index="0" speed="3.65" length="3.23" shape="1099.20,206.00 1100.00,205.60 1100.80,206.00 1101.60,207.20"/>
    </edge>
    <edge id=":L2_4" function="internal">
        <lane id=":L2_4_0" index="0" speed="6.51" length="9.03" shape="1107.20,201.60 1104.75,201.95 1103.00,203.00 1101.95,204.75 1101.60,207.20"/>
    </edge>
    <edge id=":L2_5" function="internal">
        <lane id=":L2_5_0" index="0" speed="60.00" length="14.40" shape="1107.20,201.60 1092.80,201.60"/>
    </edge>
    <edge id=":L2_6" function="internal">
        <lane id=":L2_6_0" index="0" speed="8.00" length="14.19" shape="1107.20,201.60 1103.35,201.05 1100.60,199.40 1098.95,196.65 1098.40,192.80"/>
    </edge>
    <edge id=":L2_7" function="internal">
        <lane id=":L2_7_0" index="0" speed="3.65" length="4.67" shape="1107.20,201.60 1106.00,200.80 1105.60,200.00 1106.00,199.20 1107.20,198.40"/>
    </edge>
    <edge id=":L2_8" function="internal">
        <lane id=":L2_8_0" index="0" speed="6.51" length="9.03" shape="1101.60,192.80 1101.95,195.25 1103.00,197.00 1104.75,198.05 1107.20,198.40"/>
    </edge>
    <edge id=":L2_9" function="internal">
        <lane id=":L2_9_0" index="0" speed="60.00" length="14.40" shape="1101.60,192.80 1101.60,207.20"/>
    </edge>
    <edge id=":L2_10" function="internal">
        <lane id=":L2_10_0" index="0" speed="8.00" length="4.07" shape="1101.60,192.80 1101.05,196.65 1100.96,196.80"/>
    </edge>
    <edge id=":L2_11" function="internal">
        <lane id=":L2_11_0" index="0" speed="3.65" length="1.44" shape="1101.60,192.80 1100.80,194.00"/>
    </edge>
    <edge id=":L2_18" function="internal">
        <lane id=":L2_18_0" index="0" speed="8.00" length="10.13" shape="1100.96,196.80 1099.40,199.40 1096.65,201.05 1092.80,201.60"/>
    </edge>
    <edge id=":L2_19" function="internal">
        <lane id=":L2_19_0" index="0" speed="3.65" length="3.23" shape="1100.80,194.00 1100.00,194.40 1099.20,194.00 1098.40,192.80"/>
    </edge>
    <edge id=":L2_12" function="internal">
        <lane id=":L2_12_0" index="0" speed="6.51" length="9.03" shape="1092.80,198.40 1095.25,198.05 1097.00,197.00 1098.05,195.25 1098.40,192.80"/>
    </edge>
    <edge id=":L2_13" function="internal">
        <lane id=":L2_13_0" index="0" speed="60.00" length="14.40" shape="1092.80,198.40 1107.20,198.40"/>
    </edge>
    <edge id=":L2_14" function="internal">
        <lane id=":L2_14_0" index="0" speed="8.00" length="14.19" shape="1092.80,198.40 1096.65,198.95 1099.40,200.60 1101.05,203.35 1101.60,207.20"/>
    </edge>
    <edge id=":L2_15" function="internal">
        <lane id=":L2_15_0" index="0" speed="3.65" length="4.67" shape="1092.80,198.40 1094.00,199.20 1094.40,200.00 1094.00,200.80 1092.80,201.60"/>
    </edge>
    <edge id=":L3_0" function="internal">
        <lane id=":L3_0_0" index="0" speed="6.51" length="9.03" shape="1098.40,307.20 1098.05,304.75 1097.00,303.00 1095.25,301.95 1092.80,301.60"/>
    </edge>
    <edge id=":L3_1" function="internal">
        <lane id=":L3_1_0" index="0" speed="60.00" length="14.40" shape="1098.40,307.20 1098.40,292.80"/>
    </edge>
    <edge id=":L3_2" function="internal">
        <lane id=":L3_2_0" index="0" speed="8.00" length="4.07" shape="1098.40,307.20 1098.95,303.35 1099.04,303.20"/>
    </edge>
    <edge id=":L3_3" function="internal">
        <lane id=":L3_3_0" index="0" speed="3.65" length="1.44" shape="1098.40,307.20 1099.20,306.00"/>
    </edge>
    <edge id=":L3_16" function="internal">
        <lane id=":L3_16_0" index="0" speed="8.00" length="10.13" shape="1099.04,303.20 1100.60,300.60 1103.35,298.95 1107.20,298.40"/>
    </edge>
    <edge id=":L3_17" function="internal">
        <lane id=":L3_17_0" index="0" speed="3.65" length="3.23" shape="1099.20,306.00 1100.00,305.60 1100.80,306.00 1101.60,307.20"/>
    </edge>
    <edge id=":L3_4" function="internal">
        <lane id=":L3_4_0" index="0" speed="6.51" length="9.03" shape="1107.20,301.60 1104.75,301.95 1103.00,303.00 1101.95,304.75 1101.60,307.20"/>
    </edge>
    <edge id=":L3_5" function="internal">
        <lane id=":L3_5_0" index="0" speed="60.00" length="14.40" shape="1107.20,301.60 1092.80,301.60"/>
    </edge>
    <edge id=":L3_6" function="internal">
        <lane id=":L3_6_0" index="0" speed="8.00" length="14.19" shape="1107.20,301.60 1103.35,301.05 1100.60,299.40 1098.95,296.65 1098.40,292.80"/>
    </edge>
    <edge id=":L3_7" function="internal">
        <lane id=":L3_7_0" index="0" speed="3.65" length="4.67" shape="1107.20,301.60 1106.00,300.80 1105.60,300.00 1106.00,299.20 1107.20,298.40"/>
    </edge>
    <edge id=":L3_8" function="internal">
        <lane id=":L3_8_0" index="0" speed="6.51" length="9.03" shape="1101.60,292.80 1101.95,295.25 1103.00,297.00 1104.75,298.05 1107.20,298.40"/>
    </edge>
    <edge id=":L3_9" function="internal">
        <lane id=":L3_9_0" index="0" speed="60.00" length="14.40" shape="1101.60,292.80 1101.60,307.20"/>
    </edge>
    <edge id=":L3_10" function="internal">
        <lane id=":L3_10_0" index="0" speed="8.00" length="4.07" shape="1101.60,292.80 1101.05,296.65 1100.96,296.80"/>
    </edge>
    <edge id=":L3_11" function="internal">
        <lane id=":L3_11_0" index="0" speed="3.65" length="1.44" shape="1101.60,292.80 1100.80,294.00"/>
    </edge>
    <edge id=":L3_18" function="internal">
        <lane id=":L3_18_0" index="0" speed="8.00" length="10.13" shape="1100.96,296.80 1099.40,299.40 1096.65,301.05 1092.80,301.60"/>
    </edge>
    <edge id=":L3_19" function="internal">
        <lane id=":L3_19_0" index="0" speed="3.65" length="3.23" shape="1100.80,294.00 1100.00,294.40 1099.20,294.00 1098.40,292.80"/>
    </edge>
    <edge id=":L3_12" function="internal">
        <lane id=":L3_12_0" index="0" speed="6.51" length="9.03" shape="1092.80,298.40 1095.25,298.05 1097.00,297.00 1098.05,295.25 1098.40,292.80"/>
    </edge>
    <edge id=":L3_13" function="internal">
        <lane id=":L3_13_0" index="0" speed="60.00" length="14.40" shape="1092.80,298.40 1107.20,298.40"/>
    </edge>
    <edge id=":L3_14" function="internal">
        <lane id=":L3_14_0" index="0" speed="8.00" length="14.19" shape="1092.80,298.40 1096.65,298.95 1099.40,300.60 1101.05,303.35 1101.60,307.20"/>
    </edge>
    <edge id=":L3_15" function="internal">
        <lane id=":L3_15_0" index="0" speed="3.65" length="4.67" shape="1092.80,298.40 1094.00,299.20 1094.40,300.00 1094.00,300.80 1092.80,301.60"/>
    </edge>
    <edge id=":L4_0" function="internal">
        <lane id=":L4_0_0" index="0" speed="6.51" length="9.03" shape="1098.40,407.20 1098.05,404.75 1097.00,403.00 1095.25,401.95 1092.80,401.60"/>
    </edge>
    <edge id=":L4_1" function="internal">
        <lane id=":L4_1_0" index="0" speed="60.00" length="14.40" shape="1098.40,407.20 1098.40,392.80"/>
    </edge>
    <edge id=":L4_2" function="internal">
        <lane id=":L4_2_0" index="0" speed="8.00" length="4.07" shape="1098.40,407.20 1098.95,403.35 1099.04,403.20"/>
    </edge>
    <edge id=":L4_3" function="internal">
        <lane id=":L4_3_0" index="0" speed="3.65" length="1.44" shape="1098.40,407.20 1099.20,406.00"/>
    </edge>
    <edge id=":L4_16" function="internal">
        <lane id=":L4_16_0" index="0" speed="8.00" length="10.13" shape="1099.04,403.20 1100.60,400.60 1103.35,398.95 1107.20,398.40"/>
    </edge>
    <edge id=":L4_17" function="internal">
        <lane id=":L4_17_0" index="0" speed="3.65" length="3.23" shape="1099.20,406.00 1100.00,405.60 1100.80,406.00 1101.60,407.20"/>
    </edge>
    <edge id=":L4_4" function="internal">
        <lane id=":L4_4_0" index="0" speed="6.51" length="9.03" shape="1107.20,401.60 1104.75,401.95 1103.00,403.00 1101.95,404.75 1101.60,407.20"/>
    </edge>
    <edge id=":L4_5" function="internal">
        <lane id=":L4_5_0" index="0" speed="60.00" length="14.40" shape="1107.20,401.60 1092.80,401.60"/>
    </edge>
    <edge id=":L4_6" function="internal">
        <lane id=":L4_6_0" index="0" speed="8.00" length="14.19" shape="1107.20,401.60 1103.35,401.05 1100.60,399.40 1098.95,396.65 1098.40,392.80"/>
    </edge>
    <edge id=":L4_7" function="internal">
        <lane id=":L4_7_0" index="0" speed="3.65" length="4.67" shape="1107.20,401.60 1106.00,400.80 1105.60,400.00 1106.00,399.20 1107.20,398.40"/>
    </edge>
    <edge id=":L4_8" function="internal">
        <lane id=":L4_8_0" index="0" speed="6.51" length="9.03" shape="1101.60,392.80 1101.95,395.25 1103.00,397.00 1104.75,398.05 1107.20,398.40"/>
    </edge>
    <edge id=":L4_9" function="internal">
        <lane id=":L4_9_0" index="0" speed="60.00" length="14.40" shape="1101.60,392.80 1101.60,407.20"/>
    </edge>
    <edge id=":L4_10" function="internal">
        <lane id=":L4_10_0" index="0" speed="8.00" length="4.07" shape="1101.60,392.80 1101.05,396.65 1100.96,396.80"/>
    </edge>
    <edge id=":L4_11" function="internal">
        <lane id=":L4_11_0" index="0" speed="3.65" length="1.44" shape="1101.60,392.80 1100.80,394.00"/>
    </edge>
    <edge id=":L4_18" function="internal">
        <lane id=":L4_18_0" index="0" speed="8.00" length="10.13" shape="1100.96,396.80 1099.40,399.40 1096.65,401.05 1092.80,401.60"/>
    </edge>
    <edge id=":L4_19" function="internal">
        <lane id=":L4_19_0" index="0" speed="3.65" length="3.23" shape="1100.80,394.00 1100.00,394.40 1099.20,394.00 1098.40,392.80"/>
    </edge>
    <edge id=":L4_12" function="internal">
        <lane id=":L4_12_0" index="0" speed="6.51" length="9.03" shape="1092.80,398.40 1095.25,398.05 1097.00,397.00 1098.05,395.25 1098.40,392.80"/>
    </edge>
    <edge id=":L4_13" function="internal">
        <lane id=":L4_13_0" index="0" speed="60.00" length="14.40" shape="1092.80,398.40 1107.20,398.40"/>
    </edge>
    <edge id=":L4_14" function="internal">
        <lane id=":L4_14_0" index="0" speed="8.00" length="14.19" shape="1092.80,398.40 1096.65,398.95 1099.40,400.60 1101.05,403.35 1101.60,407.20"/>
    </edge>
    <edge id=":L4_15" function="internal">
        <lane id=":L4_15_0" index="0" speed="3.65" length="4.67" shape="1092.80,398.40 1094.00,399.20 1094.40,400.00 1094.00,400.80 1092.80,401.60"/>
    </edge>
    <edge id=":L5_0" function="internal">
        <lane id=":L5_0_0" index="0" speed="6.51" length="9.03" shape="1098.40,507.20 1098.05,504.75 1097.00,503.00 1095.25,501.95 1092.80,501.60"/>
    </edge>
    <edge id=":L5_1" function="internal">
        <lane id=":L5_1_0" index="0" speed="60.00" length="14.40" shape="1098.40,507.20 1098.40,492.80"/>
    </edge>
    <edge id=":L5_2" function="internal">
        <lane id=":L5_2_0" index="0" speed="8.00" length="4.07" shape="1098.40,507.20 1098.95,503.35 1099.04,503.20"/>
    </edge>
    <edge id=":L5_3" function="internal">
        <lane id=":L5_3_0" index="0" speed="3.65" length="1.44" shape="1098.40,507.20 1099.20,506.00"/>
    </edge>
    <edge id=":L5_16" function="internal">
        <lane id=":L5_16_0" index="0" speed="8.00" length="10.13" shape="1099.04,503.20 1100.60,500.60 1103.35,498.95 1107.20,498.40"/>
    </edge>
    <edge id=":L5_17" function="internal">
        <lane id=":L5_17_0" index="0" speed="3.65" length="3.23" shape="1099.20,506.00 1100.00,505.60 1100.80,506.00 1101.60,507.20"/>
    </edge>
    <edge id=":L5_4" function="internal">
        <lane id=":L5_4_0" index="0" speed="6.51" length="9.03" shape="1107.20,501.60 1104.75,501.95 1103.00,503.00 1101.95,504.75 1101.60,507.20"/>
    </edge>
    <edge id=":L5_5" function="internal">
        <lane id=":L5_5_0" index="0" speed="60.00" length="14.40" shape="1107.20,501.60 1092.80,501.60"/>
    </edge>
    <edge id=":L5_6" function="internal">
        <lane id=":L5_6_0" index="0" speed="8.00" length="14.19" shape="1107.20,501.60 1103.35,501.05 1100.60,499.40 1098.95,496.65 1098.40,492.80"/>
    </edge>
    <edge id=":L5_7" function="internal">
        <lane id=":L5_7_0" index="0" speed="3.65" length="4.67" shape="1107.20,501.60 1106.00,500.80 1105.60,500.00 1106.00,499.20 1107.20,498.40"/>
    </edge>
    <edge id=":L5_8" function="internal">
        <lane id=":L5_8_0" index="0" speed="6.51" length="9.03" shape="1101.60,492.80 1101.95,495.25 1103.00,497.00 1104.75,498.05 1107.20,498.40"/>
    </edge>
    <edge id=":L5_9" function="internal">
        <lane id=":L5_9_0" index="0" speed="60.00" length="14.40" shape="1101.60,492.80 1101.60,507.20"/>
    </edge>
    <edge id=":L5_10" function="internal">
        <lane id=":L5_10_0" index="0" speed="8.00" length="4.07" shape="1101.60,492.80 1101.05,496.65 1100.96,496.80"/>
    </edge>
    <edge id=":L5_11" function="internal">
        <lane id=":L5_11_0" index="0" speed="3.65" length="1.44" shape="1101.60,492.80 1100.80,494.00"/>
    </edge>
    <edge id=":L5_18" function="internal">
        <lane id=":L5_18_0" index="0" speed="8.00" length="10.13" shape="1100.96,496.80 1099.40,499.40 1096.65,501.05 1092.80,501.60"/>
    </edge>
    <edge id=":L5_19" function="internal">
        <lane id=":L5_19_0" index="0" speed="3.65" length="3.23" shape="1100.80,494.00 1100.00,494.40 1099.20,494.00 1098.40,492.80"/>
    </edge>
    <edge id=":L5_12" function="internal">
        <lane id=":L5_12_0" index="0" speed="6.51" length="9.03" shape="1092.80,498.40 1095.25,498.05 1097.00,497.00 1098.05,495.25 1098.40,492.80"/>
    </edge>
    <edge id=":L5_13" function="internal">
        <lane id=":L5_13_0" index="0" speed="60.00" length="14.40" shape="1092.80,498.40 1107.20,498.40"/>
    </edge>
    <edge id=":L5_14" function="internal">
        <lane id=":L5_14_0" index="0" speed="8.00" length="14.19" shape="1092.80,498.40 1096.65,498.95 1099.40,500.60 1101.05,503.35 1101.60,507.20"/>
    </edge>
    <edge id=":L5_15" function="internal">
        <lane id=":L5_15_0" index="0" speed="3.65" length="4.67" shape="1092.80,498.40 1094.00,499.20 1094.40,500.00 1094.00,500.80 1092.80,501.60"/>
    </edge>
    <edge id=":L6_0" function="internal">
        <lane id=":L6_0_0" index="0" speed="6.51" length="9.03" shape="1098.40,607.20 1098.05,604.75 1097.00,603.00 1095.25,601.95 1092.80,601.60"/>
    </edge>
    <edge id=":L6_1" function="internal">
        <lane id=":L6_1_0" index="0" speed="60.00" length="14.40" shape="1098.40,607.20 1098.40,592.80"/>
    </edge>
    <edge id=":L6_2" function="internal">
        <lane id=":L6_2_0" index="0" speed="8.00" length="4.07" shape="1098.40,607.20 1098.95,603.35 1099.04,603.20"/>
    </edge>
    <edge id=":L6_3" function="internal">
        <lane id=":L6_3_0" index="0" speed="3.65" length="1.44" shape="1098.40,607.20 1099.20,606.00"/>
    </edge>
    <edge id=":L6_16" function="internal">
        <lane id=":L6_16_0" index="0" speed="8.00" length="10.13" shape="1099.04,603.20 1100.60,600.60 1103.35,598.95 1107.20,598.40"/>
    </edge>
    <edge id=":L6_17" function="internal">
        <lane id=":L6_17_0" index="0" speed="3.65" length="3.23" shape="1099.20,606.00 1100.00,605.60 1100.80,606.00 1101.60,607.20"/>
    </edge>
    <edge id=":L6_4" function="internal">
        <lane id=":L6_4_0" index="0" speed="6.51" length="9.03" shape="1107.20,601.60 1104.75,601.95 1103.00,603.00 1101.95,604.75 1101.60,607.20"/>
    </edge>
    <edge id=":L6_5" function="internal">
        <lane id=":L6_5_0" index="0" speed="60.00" length="14.40" shape="1107.20,601.60 1092.80,601.60"/>
    </edge>
    <edge id=":L6_6" function="internal">
        <lane id=":L6_6_0" index="0" speed="8.00" length="14.19" shape="1107.20,601.60 1103.35,601.05 1100.60,599.40 1098.95,596.65 1098.40,592.80"/>
    </edge>
    <edge id=":L6_7" function="internal">
        <lane id=":L6_7_0" index="0" speed="3.65" length="4.67" shape="1107.20,601.60 1106.00,600.80 1105.60,600.00 1106.00,599.20 1107.20,598.40"/>
    </edge>
    <edge id=":L6_8" function="internal">
        <lane id=":L6_8_0" index="0" speed="6.51" length="9.03" shape="1101.60,592.80 1101.95,595.25 1103.00,597.00 1104.75,598.05 1107.20,598.40"/>
    </edge>
    <edge id=":L6_9" function="internal">
        <lane id=":L6_9_0" index="0" speed="60.00" length="14.40" shape="1101.60,592.80 1101.60,607.20"/>
    </edge>
    <edge id=":L6_10" function="internal">
        <lane id=":L6_10_0" index="0" speed="8.00" length="4.07" shape="1101.60,592.80 1101.05,596.65 1100.96,596.80"/>
    </edge>
    <edge id=":L6_11" function="internal">
        <lane id=":L6_11_0" index="0" speed="3.65" length="1.44" shape="1101.60,592.80 1100.80,594.00"/>
    </edge>
    <edge id=":L6_18" function="internal">
        <lane id=":L6_18_0" index="0" speed="8.00" length="10.13" shape="1100.96,596.80 1099.40,599.40 1096.65,601.05 1092.80,601.60"/>
    </edge>
    <edge id=":L6_19" function="internal">
        <lane id=":L6_19_0" index="0" speed="3.65" length="3.23" shape="1100.80,594.00 1100.00,594.40 1099.20,594.00 1098.40,592.80"/>
    </edge>
    <edge id=":L6_12" function="internal">
        <lane id=":L6_12_0" index="0" speed="6.51" length="9.03" shape="1092.80,598.40 1095.25,598.05 1097.00,597.00 1098.05,595.25 1098.40,592.80"/>
    </edge>
    <edge id=":L6_13" function="internal">
        <lane id=":L6_13_0" index="0" speed="60.00" length="14.40" shape="1092.80,598.40 1107.20,598.40"/>
    </edge>
    <edge id=":L6_14" function="internal">
        <lane id=":L6_14_0" index="0" speed="8.00" length="14.19" shape="1092.80,598.40 1096.65,598.95 1099.40,600.60 1101.05,603.35 1101.60,607.20"/>
    </edge>
    <edge id=":L6_15" function="internal">
        <lane id=":L6_15_0" index="0" speed="3.65" length="4.67" shape="1092.80,598.40 1094.00,599.20 1094.40,600.00 1094.00,600.80 1092.80,601.60"/>
    </edge>
    <edge id=":L7_0" function="internal">
        <lane id=":L7_0_0" index="0" speed="6.51" length="9.03" shape="1098.40,707.20 1098.05,704.75 1097.00,703.00 1095.25,701.95 1092.80,701.60"/>
    </edge>
    <edge id=":L7_1" function="internal">
        <lane id=":L7_1_0" index="0" speed="60.00" length="14.40" shape="1098.40,707.20 1098.40,692.80"/>
    </edge>
    <edge id=":L7_2" function="internal">
        <lane id=":L7_2_0" index="0" speed="8.00" length="4.07" shape="1098.40,707.20 1098.95,703.35 1099.04,703.20"/>
    </edge>
    <edge id=":L7_3" function="internal">
        <lane id=":L7_3_0" index="0" speed="3.65" length="1.44" shape="1098.40,707.20 1099.20,706.00"/>
    </edge>
    <edge id=":L7_16" function="internal">
        <lane id=":L7_16_0" index="0" speed="8.00" length="10.13" shape="1099.04,703.20 1100.60,700.60 1103.35,698.95 1107.20,698.40"/>
    </edge>
    <edge id=":L7_17" function="internal">
        <lane id=":L7_17_0" index="0" speed="3.65" length="3.23" shape="1099.20,706.00 1100.00,705.60 1100.80,706.00 1101.60,707.20"/>
    </edge>
    <edge id=":L7_4" function="internal">
        <lane id=":L7_4_0" index="0" speed="6.51" length="9.03" shape="1107.20,701.60 1104.75,701.95 1103.00,703.00 1101.95,704.75 1101.60,707.20"/>
    </edge>
    <edge id=":L7_5" function="internal">
        <lane id=":L7_5_0" index="0" speed="60.00" length="14.40" shape="1107.20,701.60 1092.80,701.60"/>
    </edge>
    <edge id=":L7_6" function="internal">
        <lane id=":L7_6_0" index="0" speed="8.00" length="14.19" shape="1107.20,701.60 1103.35,701.05 1100.60,699.40 1098.95,696.65 1098.40,692.80"/>
    </edge>
    <edge id=":L7_7" function="internal">
        <lane id=":L7_7_0" index="0" speed="3.65" length="4.67" shape="1107.20,701.60 1106.00,700.80 1105.60,700.00 1106.00,699.20 1107.20,698.40"/>
    </edge>
    <edge id=":L7_8" function="internal">