<routes>
  <vType id="car" vClass="passenger" speedDev="0.2" sigma="0.2" decel="4.5" accel="2.6" maxSpeed="60" length="5"/>
  

  <vehicle id="mec0" type="car" depart="0" color="1, 0, 0" departPos="stop">
    <route edges="B9B10"/>
    <stop edge="B9B10" lane="B9B10_0" parking="true"/>
    <param key="has.btreceiver.device" value="true"/> 
  </vehicle>

  <vehicle id="mec1" type="car" depart="0" color="1, 0, 0" departPos="stop">
    <route edges="B10B11"/>
    <stop edge="B10B11" lane="B10B11_0" parking="true"/>
    <param key="has.btreceiver.device" value="true"/> 
  </vehicle>

  <vehicle id="mec2" type="car" depart="0" color="1, 0, 0" departPos="stop">
    <route edges="B2B3"/>
    <stop edge="B2B3" lane="B2B3_0" parking="true"/>
    <param key="has.btreceiver.device" value="true"/> 
  </vehicle>

  <vehicle id="mec3" type="car" depart="0" color="1, 0, 0" departPos="stop">
    <route edges="B4B5"/>
    <stop edge="B4B5" lane="B4B5_0" parking="true"/>
    <param key="has.btreceiver.device" value="true"/> 
  </vehicle>

  <vehicle id="mec4" type="car" depart="0" color="1, 0, 0" departPos="stop">
    <route edges="B10B11"/>
    <stop edge="B10B11" lane="B10B11_0" parking="true"/>
    <param key="has.btreceiver.device" value="true"/> 
  </vehicle>

  <vehicle id="mec5" type="car" depart="0" color="1, 0, 0" departPos="stop">
    <route edges="B6B7"/>
    <stop edge="B6B7" lane="B6B7_0" parking="true"/>
    <param key="has.btreceiver.device" value="true"/> 
  </vehicle>

  <vehicle id="mec6" type="car" depart="0" color="1, 0, 0" departPos="stop">
    <route edges="C2C3"/>
    <stop edge="C2C3" lane="C2C3_0" parking="true"/>
    <param key="has.btreceiver.device" value="true"/> 
  </vehicle>

  <vehicle id="mec7" type="car" depart="0" color="1, 0, 0" departPos="stop">
    <route edges="C6C7"/>
    <stop edge="C6C7" lane="C6C7_0" parking="true"/>
    <param key="has.btreceiver.device" value="true"/> 
  </vehicle>

  <vehicle id="mec8" type="car" depart="0" color="1, 0, 0" departPos="stop">
    <route edges="C5C6"/>
    <stop edge="C5C6" lane="C5C6_0" parking="true"/>
    <param key="has.btreceiver.device" value="true"/> 
  </vehicle>

  <vehicle id="mec9" type="car" depart="0" color="1, 0, 0" departPos="stop">
    <route edges="C7C8"/>
    <stop edge="C7C8" lane="C7C8_0" parking="true"/>
    <param key="has.btreceiver.device" value="true"/> 
  </vehicle>

  <vehicle id="mec10" type="car" depart="0" color="1, 0, 0" departPos="stop">
    <route edges="C3C4"/>
    <stop edge="C3C4" lane="C3C4_0" parking="true"/>
    <param key="has.btreceiver.device" value="true"/> 
  </vehicle>

  <vehicle id="mec11" type="car" depart="0" color="1, 0, 0" departPos="stop">
    <route edges="C8C9"/>
    <stop edge="C8C9" lane="C8C9_0" parking="true"/>
    <param key="has.btreceiver.device" value="true"/> 
  </vehicle>

  <vehicle id="mec12" type="car" depart="0" color="1, 0, 0" departPos="stop">
    <route edges="D7D8"/>
    <stop edge="D7D8" lane="D7D8_0" parking="true"/>
    <param key="has.btreceiver.device" value="true"/> 
  </vehicle>

  <vehicle id="mec13" type="car" depart="0" color="1, 0, 0" departPos="stop">
    <route edges="D2D3"/>
    <stop edge="D2D3" lane="D2D3_0" parking="true"/>
    <param key="has.btreceiver.device" value="true"/> 
  </vehicle>

  <vehicle id="mec14" type="car" depart="0" color="1, 0, 0" departPos="stop">
    <route edges="D6D7"/>
    <stop edge="D6D7" lane="D6D7_0" parking="true"/>
    <param key="has.btreceiver.device" value="true"/> 
  </vehicle>

  <vehicle id="mec15" type="car" depart="0" color="1, 0, 0" departPos="stop">
    <route edges="D4D5"/>
    <stop edge="D4D5" lane="D4D5_0" parking="true"/>
    <param key="has.btreceiver.device" value="true"/> 
  </vehicle>

  <vehicle id="mec16" type="car" depart="0" color="1, 0, 0" departPos="stop">
    <route edges="D3D4"/>
    <stop edge="D3D4" lane="D3D4_0" parking="true"/>
    <param key="has.btreceiver.device" value="true"/> 
  </vehicle>

  <vehicle id="mec17" type="car" depart="0" color="1, 0, 0" departPos="stop">
    <route edges="E4E5"/>
    <stop edge="E4E5" lane="E4E5_0" parking="true"/>
    <param key="has.btreceiver.device" value="true"/> 
  </vehicle>

  <vehicle id="mec18" type="car" depart="0" color="1, 0, 0" departPos="stop">
    <route edges="E7E8"/>
    <stop edge="E7E8" lane="E7E8_0" parking="true"/>
    <param key="has.btreceiver.device" value="true"/> 
  </vehicle>

  <vehicle id="mec19" type="car" depart="0" color="1, 0, 0" departPos="stop">
    <route edges="E6E7"/>
    <stop edge="E6E7" lane="E6E7_0" parking="true"/>
    <param key="has.btreceiver.device" value="true"/> 
  </vehicle>

  <vehicle id="mec20" type="car" depart="0" color="1, 0, 0" departPos="stop">
    <route edges="E8E9"/>
    <stop edge="E8E9" lane="E8E9_0" parking="true"/>
    <param key="has.btreceiver.device" value="true"/> 
  </vehicle>

  <vehicle id="mec21" type="car" depart="0" color="1, 0, 0" departPos="stop">
    <route edges="E3E4"/>
    <stop edge="E3E4" lane="E3E4_0" parking="true"/>
    <param key="has.btreceiver.device" value="true"/> 
  </vehicle>

  <vehicle id="mec22" type="car" depart="0" color="1, 0, 0" departPos="stop">
    <route edges="F9F10"/>
    <stop edge="F9F10" lane="F9F10_0" parking="true"/>
    <param key="has.btreceiver.device" value="true"/> 
  </vehicle>

  <vehicle id="mec23" type="car" depart="0" color="1, 0, 0" departPos="stop">
    <route edges="F10F11"/>
    <stop edge="F10F11" lane="F10F11_0" parking="true"/>
    <param key="has.btreceiver.device" value="true"/> 
  </vehicle>

  <vehicle id="mec24" type="car" depart="0" color="1, 0, 0" departPos="stop">
    <route edges="F10F11"/>
    <stop edge="F10F11" lane="F10F11_0" parking="true"/>
    <param key="has.btreceiver.device" value="true"/> 
  </vehicle>

  <vehicle id="mec25" type="car" depart="0" color="1, 0, 0" departPos="stop">
    <route edges="F3F4"/>
    <stop edge="F3F4" lane="F3F4_0" parking="true"/>
    <param key="has.btreceiver.device" value="true"/> 
  </vehicle>

  <vehicle id="mec26" type="car" depart="0" color="1, 0, 0" departPos="stop">
    <route edges="F5F6"/>
    <stop edge="F5F6" lane="F5F6_0" parking="true"/>
    <param key="has.btreceiver.device" value="true"/> 
  </vehicle>

  <vehicle id="mec27" type="car" depart="0" color="1, 0, 0" departPos="stop">
    <route edges="G10G11"/>
    <stop edge="G10G11" lane="G10G11_0" parking="true"/>
    <param key="has.btreceiver.device" value="true"/> 
  </vehicle>

  <vehicle id="mec28" type="car" depart="0" color="1, 0, 0" departPos="stop">
    <route edges="G2G3"/>
    <stop edge="G2G3" lane="G2G3_0" parking="true"/>
    <param key="has.btreceiver.device" value="true"/> 
  </vehicle>

  <vehicle id="mec29" type="car" depart="0" color="1, 0, 0" departPos="stop">
    <route edges="G9G10"/>
    <stop edge="G9G10" lane="G9G10_0" parking="true"/>
    <param key="has.btreceiver.device" value="true"/> 
  </vehicle>

  <vehicle id="mec30" type="car" depart="0" color="1, 0, 0" departPos="stop">
    <route edges="G6G7"/>
    <stop edge="G6G7" lane="G6G7_0" parking="true"/>
    <param key="has.btreceiver.device" value="true"/> 
  </vehicle>

  <vehicle id="mec31" type="car" depart="0" color="1, 0, 0" departPos="stop">
    <route edges="G5G6"/>
    <stop edge="G5G6" lane="G5G6_0" parking="true"/>
    <param key="has.btreceiver.device" value="true"/> 
  </vehicle>

  <vehicle id="mec32" type="car" depart="0" color="1, 0, 0" departPos="stop">
    <route edges="G3G4"/>
    <stop edge="G3G4" lane="G3G4_0" parking="true"/>
    <param key="has.btreceiver.device" value="true"/> 
  </vehicle>

  <vehicle id="mec33" type="car" depart="0" color="1, 0, 0" departPos="stop">
    <route edges="H10H11"/>
    <stop edge="H10H11" lane="H10H11_0" parking="true"/>
    <param key="has.btreceiver.device" value="true"/> 
  </vehicle>

  <vehicle id="mec34" type="car" depart="0" color="1, 0, 0" departPos="stop">
    <route edges="H10H11"/>
    <stop edge="H10H11" lane="H10H11_0" parking="true"/>
    <param key="has.btreceiver.device" value="true"/> 
  </vehicle>

  <vehicle id="mec35" type="car" depart="0" color="1, 0, 0" departPos="stop">
    <route edges="H5H6"/>
    <stop edge="H5H6" lane="H5H6_0" parking="true"/>
    <param key="has.btreceiver.device" value="true"/> 
  </vehicle>

  <vehicle id="mec36" type="car" depart="0" color="1, 0, 0" departPos="stop">
    <route edges="H4H5"/>
    <stop edge="H4H5" lane="H4H5_0" parking="true"/>
    <param key="has.btreceiver.device" value="true"/> 
  </vehicle>

  <vehicle id="mec37" type="car" depart="0" color="1, 0, 0" departPos="stop">
    <route edges="H9H10"/>
    <stop edge="H9H10" lane="H9H10_0" parking="true"/>
    <param key="has.btreceiver.device" value="true"/> 
  </vehicle>

  <vehicle id="mec38" type="car" depart="0" color="1, 0, 0" departPos="stop">
    <route edges="I8I9"/>
    <stop edge="I8I9" lane="I8I9_0" parking="true"/>
    <param key="has.btreceiver.device" value="true"/> 
  </vehicle>

  <vehicle id="mec39" type="car" depart="0" color="1, 0, 0" departPos="stop">
    <route edges="I3I4"/>
    <stop edge="I3I4" lane="I3I4_0" parking="true"/>
    <param key="has.btreceiver.device" value="true"/> 
  </vehicle>

  <vehicle id="mec40" type="car" depart="0" color="1, 0, 0" departPos="stop">
    <route edges="I6I7"/>
    <stop edge="I6I7" lane="I6I7_0" parking="true"/>
    <param key="has.btreceiver.device" value="true"/> 
  </vehicle>

  <vehicle id="mec41" type="car" depart="0" color="1, 0, 0" departPos="stop">
    <route edges="I4I5"/>
    <stop edge="I4I5" lane="I4I5_0" parking="true"/>
    <param key="has.btreceiver.device" value="true"/> 
  </vehicle>

  <vehicle id="mec42" type="car" depart="0" color="1, 0, 0" departPos="stop">
    <route edges="I9I10"/>
    <stop edge="I9I10" lane="I9I10_0" parking="true"/>
    <param key="has.btreceiver.device" value="true"/> 
  </vehicle>

  <vehicle id="mec43" type="car" depart="0" color="1, 0, 0" departPos="stop">
    <route edges="J3J4"/>
    <stop edge="J3J4" lane="J3J4_0" parking="true"/>
    <param key="has.btreceiver.device" value="true"/> 
  </vehicle>

  <vehicle id="mec44" type="car" depart="0" color="1, 0, 0" departPos="stop">
    <route edges="J7J8"/>
    <stop edge="J7J8" lane="J7J8_0" parking="true"/>
    <param key="has.btreceiver.device" value="true"/> 
  </vehicle>

  <vehicle id="mec45" type="car" depart="0" color="1, 0, 0" departPos="stop">
    <route edges="J9J10"/>
    <stop edge="J9J10" lane="J9J10_0" parking="true"/>
    <param key="has.btreceiver.device" value="true"/> 
  </vehicle>

  <vehicle id="mec46" type="car" depart="0" color="1, 0, 0" departPos="stop">
    <route edges="J10J11"/>
    <stop edge="J10J11" lane="J10J11_0" parking="true"/>
    <param key="has.btreceiver.device" value="true"/> 
  </vehicle>

  <vehicle id="mec47" type="car" depart="0" color="1, 0, 0" departPos="stop">
    <route edges="J5J6"/>
    <stop edge="J5J6" lane="J5J6_0" parking="true"/>
    <param key="has.btreceiver.device" value="true"/> 
  </vehicle>

  <vehicle id="mec48" type="car" depart="0" color="1, 0, 0" departPos="stop">
    <route edges="J8J9"/>
    <stop edge="J8J9" lane="J8J9_0" parking="true"/>
    <param key="has.btreceiver.device" value="true"/> 
  </vehicle>

  <vehicle id="mec49" type="car" depart="0" color="1, 0, 0" departPos="stop">
    <route edges="K10K11"/>
    <stop edge="K10K11" lane="K10K11_0" parking="true"/>
    <param key="has.btreceiver.device" value="true"/> 
  </vehicle>

  <vehicle id="mec50" type="car" depart="0" color="1, 0, 0" departPos="stop">
    <route edges="K7K8"/>
    <stop edge="K7K8" lane="K7K8_0" parking="true"/>
    <param key="has.btreceiver.device" value="true"/> 
  </vehicle>

  <vehicle id="mec51" type="car" depart="0" color="1, 0, 0" departPos="stop">
    <route edges="K4K5"/>
    <stop edge="K4K5" lane="K4K5_0" parking="true"/>
    <param key="has.btreceiver.device" value="true"/> 
  </vehicle>

  <vehicle id="mec52" type="car" depart="0" color="1, 0, 0" departPos="stop">
    <route edges="K6K7"/>
    <stop edge="K6K7" lane="K6K7_0" parking="true"/>
    <param key="has.btreceiver.device" value="true"/> 
  </vehicle>

  <vehicle id="mec53" type="car" depart="0" color="1, 0, 0" departPos="stop">
    <route edges="K5K6"/>
    <stop edge="K5K6" lane="K5K6_0" parking="true"/>
    <param key="has.btreceiver.device" value="true"/> 
  </vehicle>

  <vehicle id="mec54" type="car" depart="0" color="1, 0, 0" departPos="stop">
    <route edges="K9K10"/>
    <stop edge="K9K10" lane="K9K10_0" parking="true"/>
    <param key="has.btreceiver.device" value="true"/> 
  </vehicle>

  <vehicle id="mec55" type="car" depart="0" color="1, 0, 0" departPos="stop">
    <route edges="L8L9"/>
    <stop edge="L8L9" lane="L8L9_0" parking="true"/>
    <param key="has.btreceiver.device" value="true"/> 
  </vehicle>

  <vehicle id="mec56" type="car" depart="0" color="1, 0, 0" departPos="stop">
    <route edges="L5L6"/>
    <stop edge="L5L6" lane="L5L6_0" parking="true"/>
    <param key="has.btreceiver.device" value="true"/> 
  </vehicle>

  <vehicle id="mec57" type="car" depart="0" color="1, 0, 0" departPos="stop">
    <route edges="L10L11"/>
    <stop edge="L10L11" lane="L10L11_0" parking="true"/>
    <param key="has.btreceiver.device" value="true"/> 
  </vehicle>

  <vehicle id="mec58" type="car" depart="0" color="1, 0, 0" departPos="stop">
    <route edges="L4L5"/>
    <stop edge="L4L5" lane="L4L5_0" parking="true"/>
    <param key="has.btreceiver.device" value="true"/> 
  </vehicle>

  <vehicle id="mec59" type="car" depart="0" color="1, 0, 0" departPos="stop">
    <route edges="L10L11"/>
    <stop edge="L10L11" lane="L10L11_0" parking="true"/>
    <param key="has.btreceiver.device" value="true"/> 
  </vehicle>

  <flow id="car0" type="car" departPos="base" number="1" begin="0" end="100000" from="A3B3" to="L3M3">
    <param key="has.btsender.device" value="true"/> 
  </flow>

  <flow id="car1" type="car" departPos="base" number="1" begin="0" end="100000" from="M2L2" to="D11D12">
    <param key="has.btsender.device" value="true"/> 
  </flow>

  <flow id="car2" type="car" departPos="base" number="1" begin="0" end="100000" from="K12K11" to="B4A4">
    <param key="has.btsender.device" value="true"/> 
  </flow>

  <flow id="car3" type="car" departPos="base" number="1" begin="0" end="100000" from="I0I1" to="L11L12">
    <param key="has.btsender.device" value="true"/> 
  </flow>

  <flow id="car4" type="car" departPos="base" number="1" begin="0" end="100000" from="L0L1" to="L11L12">
    <param key="has.btsender.device" value="true"/> 
  </flow>

  <flow id="car5" type="car" departPos="base" number="1" begin="0" end="100000" from="H0H1" to="L4M4">
    <param key="has.btsender.device" value="true"/> 
  </flow>

  <flow id="car6" type="car" departPos="base" number="1" begin="0" end="100000" from="J12J11" to="L2M2">
    <param key="has.btsender.device" value="true"/> 
  </flow>

  <flow id="car7" type="car" departPos="base" number="1" begin="0" end="100000" from="M10L10" to="L2M2">
    <param key="has.btsender.device" value="true"/> 
  </flow>

  <flow id="car8" type="car" departPos="base" number="1" begin="0" end="100000" from="A10B10" to="D1D0">
    <param key="has.btsender.device" value="true"/> 
  </flow>

  <flow id="car9" type="car" departPos="base" number="1" begin="0" end="100000" from="A5B5" to="D1D0">
    <param key="has.btsender.device" value="true"/> 
  </flow>

  <flow id="car10" type="car" departPos="base" number="1" begin="0" end="100000" from="M11L11" to="L11L12">
    <param key="has.btsender.device" value="true"/> 
  </flow>

  <flow id="car11" type="car" departPos="base" number="1" begin="0" end="100000" from="A10B10" to="D11D12">
    <param key="has.btsender.device" value="true"/> 
  </flow>

  <flow id="car12" type="car" departPos="base" number="1" begin="0" end="100000" from="A4B4" to="E11E12">
    <param key="has.btsender.device" value="true"/> 
  </flow>

  <flow id="car13" type="car" departPos="base" number="1" begin="0" end="100000" from="M8L8" to="L1M1">
    <param key="has.btsender.device" value="true"/> 
  </flow>

  <flow id="car14" type="car" departPos="base" number="1" begin="0" end="100000" from="M2L2" to="L11L12">
    <param key="has.btsender.device" value="true"/> 
  </flow>

  <flow id="car15" type="car" departPos="base" number="1" begin="0" end="100000" from="A3B3" to="H11H12">
    <param key="has.btsender.device" value="true"/> 
  </flow>

  <flow id="car16" type="car" departPos="base" number="1" begin="0" end="100000" from="H0H1" to="B7A7">
    <param key="has.btsender.device" value="true"/> 
  </flow>

  <flow id="car17" type="car" departPos="base" number="1" begin="0" end="100000" from="J12J11" to="G11G12">
    <param key="has.btsender.device" value="true"/> 
  </flow>

  <flow id="car18" type="car" departPos="base" number="1" begin="0" end="100000" from="H12H11" to="B11B12">
    <param key="has.btsender.device" value="true"/> 
  </flow>

  <flow id="car19" type="car" departPos="base" number="1" begin="0" end="100000" from="A1B1" to="L8M8">
    <param key="has.btsender.device" value="true"/> 
  </flow>

  <flow id="car20" type="car" departPos="base" number="1" begin="0" end="100000" from="A2B2" to="E11E12">
    <param key="has.btsender.device" value="true"/> 
  </flow>

  <flow id="car21" type="car" departPos="base" number="1" begin="0" end="100000" from="M4L4" to="B8A8">
    <param key="has.btsender.device" value="true"/> 
  </flow>

  <flow id="car22" type="car" departPos="base" number="1" begin="0" end="100000" from="B12B11" to="L4M4">
    <param key="has.btsender.device" value="true"/> 
  </flow>

  <flow id="car23" type="car" departPos="base" number="1" begin="0" end="100000" from="M5L5" to="K11K12">
    <param key="has.btsender.device" value="true"/> 
  </flow>

  <flow id="car24" type="car" departPos="base" number="1" begin="0" end="100000" from="D12D11" to="G11G12">
    <param key="has.btsender.device" value="true"/> 
  </flow>

  <flow id="car25" type="car" departPos="base" number="1" begin="0" end="100000" from="M9L9" to="F1F0">
    <param key="has.btsender.device" value="true"/> 
  </flow>

  <flow id="car26" type="car" departPos="base" number="1" begin="0" end="100000" from="K0K1" to="B7A7">
    <param key="has.btsender.device" value="true"/> 
  </flow>

  <flow id="car27" type="car" departPos="base" number="1" begin="0" end="100000" from="C0C1" to="L1M1">
    <param key="has.btsender.device" value="true"/> 
  </flow>

  <flow id="car28" type="car" departPos="base" number="1" begin="0" end="100000" from="D12D11" to="B1A1">
    <param key="has.btsender.device" value="true"/> 
  </flow>

  <flow id="car29" type="car" departPos="base" number="1" begin="0" end="100000" from="G0G1" to="B7A7">
    <param key="has.btsender.device" value="true"/> 
  </flow>

  <flow id="car30" type="car" departPos="base" number="1" begin="0" end="100000" from="M3L3" to="D1D0">
    <param key="has.btsender.device" value="true"/> 
  </flow>

  <flow id="car31" type="car" departPos="base" number="1" begin="0" end="100000" from="M1L1" to="E11E12">
    <param key="has.btsender.device" value="true"/> 
  </flow>

  <flow id="car32" type="car" departPos="base" number="1" begin="0" end="100000" from="M3L3" to="B4A4">
    <param key="has.btsender.device" value="true"/> 
  </flow>

  <flow id="car33" type="car" departPos="base" number="1" begin="0" end="100000" from="M3L3" to="L9M9">
    <param key="has.btsender.device" value="true"/> 
  </flow>

  <flow id="car34" type="car" departPos="base" number="1" begin="0" end="100000" from="I12I11" to="F11F12">
    <param key="has.btsender.device" value="true"/> 
  </flow>

  <flow id="car35" type="car" departPos="base" number="1" begin="0" end="100000" from="B0B1" to="B4A4">
    <param key="has.btsender.device" value="true"/> 
  </flow>

  <flow id="car36" type="car" departPos="base" number="1" begin="0" end="100000" from="A1B1" to="L4M4">
    <param key="has.btsender.device" value="true"/> 
  </flow>

  <flow id="car37" type="car" departPos="base" number="1" begin="0" end="100000" from="A11B11" to="B6A6">
    <param key="has.btsender.device" value="true"/> 
  </flow>

  <flow id="car38" type="car" departPos="base" number="1" begin="0" end="100000" from="M11L11" to="L9M9">
    <param key="has.btsender.device" value="true"/> 
  </flow>

  <flow id="car39" type="car" departPos="base" number="1" begin="0" end="100000" from="E0E1" to="C11C12">
    <param key="has.btsender.device" value="true"/> 
  </flow>

  <flow id="car40" type="car" departPos="base" number="1" begin="0" end="100000" from="A3B3" to="L6M6">
    <param key="has.btsender.device" value="true"/> 
  </flow>

  <flow id="car41" type="car" departPos="base" number="1" begin="0" end="100000" from="A9B9" to="F11F12">
    <param key="has.btsender.device" value="true"/> 
  </flow>

  <flow id="car42" type="car" departPos="base" number="1" begin="0" end="100000" from="H0H1" to="B4A4">
    <param key="has.btsender.device" value="true"/> 
  </flow>

  <flow id="car43" type="car" departPos="base" number="1" begin="0" end="100000" from="K0K1" to="B11B12">
    <param key="has.btsender.device" value="true"/> 
  </flow>

  <flow id="car44" type="car" departPos="base" number="1" begin="0" end="100000" from="A5B5" to="L11L12">
    <param key="has.btsender.device" value="true"/> 
  </flow>

  <flow id="car45" type="car" departPos="base" number="1" begin="0" end="100000" from="D0D1" to="L11M11">
    <param key="has.btsender.device" value="true"/> 
  </flow>

  <flow id="car46" type="car" departPos="base" number="1" begin="0" end="100000" from="A11B11" to="L5M5">
    <param key="has.btsender.device" value="true"/> 
  </flow>

  <flow id="car47" type="car" departPos="base" number="1" begin="0" end="100000" from="I12I11" to="L4M4">
    <param key="has.btsender.device" value="true"/> 
  </flow>

  <flow id="car48" type="car" departPos="base" number="1" begin="0" end="100000" from="G0G1" to="L10M10">
    <param key="has.btsender.device" value="true"/> 
  </flow>

  <flow id="car49" type="car" departPos="base" number="1" begin="0" end="100000" from="C0C1" to="B5A5">
    <param key="has.btsender.device" value="true"/> 
  </flow>

  <flow id="car50" type="car" departPos="base" number="1" begin="0" end="100000" from="L12L11" to="I11I12">
    <param key="has.btsender.device" value="true"/> 
  </flow>

  <flow id="car51" type="car" departPos="base" number="1" begin="0" end="100000" from="A4B4" to="B5A5">
    <param key="has.btsender.device" value="true"/> 
  </flow>

  <flow id="car52" type="car" departPos="base" number="1" begin="0" end="100000" from="M11L11" to="H11H12">
    <param key="has.btsender.device" value="true"/> 
  </flow>

  <flow id="car53" type="car" departPos="base" number="1" begin="0" end="100000" from="J12J11" to="L9M9">
    <param key="has.btsender.device" value="true"/> 
  </flow>

  <flow id="car54" type="car" departPos="base" number="1" begin="0" end="100000" from="M10L10" to="H11H12">
    <param key="has.btsender.device" value="true"/> 
  </flow>

  <flow id="car55" type="car" departPos="base" number="1" begin="0" end="100000" from="M4L4" to="L1M1">
    <param key="has.btsender.device" value="true"/> 
  </flow>

  <flow id="car56" type="car" departPos="base" number="1" begin="0" end="100000" from="F0F1" to="B11A11">
    <param key="has.btsender.device" value="true"/> 
  </flow>

  <flow id="car57" type="car" departPos="base" number="1" begin="0" end="100000" from="M11L11" to="L9M9">
    <param key="has.btsender.device" value="true"/> 
  </flow>

  <flow id="car58" type="car" departPos="base" number="1" begin="0" end="100000" from="L0L1" to="B11A11">
    <param key="has.btsender.device" value="true"/> 
  </flow>

  <flow id="car59" type="car" departPos="base" number="1" begin="0" end="100000" from="L12L11" to="B9A9">
    <param key="has.btsender.device" value="true"/> 
  </flow>

  <flow id="car60" type="car" departPos="base" number="1" begin="0" end="100000" from="H0H1" to="L1M1">
    <param key="has.btsender.device" value="true"/> 
  </flow>

  <flow id="car61" type="car" departPos="base" number="1" begin="0" end="100000" from="I0I1" to="B9A9">
    <param key="has.btsender.device" value="true"/> 
  </flow>

  <flow id="car62" type="car" departPos="base" number="1" begin="0" end="100000" from="A8B8" to="B4A4">
    <param key="has.btsender.device" value="true"/> 
  </flow>

  <flow id="car63" type="car" departPos="base" number="1" begin="0" end="100000" from="M11L11" to="B2A2">
    <param key="has.btsender.device" value="true"/> 
  </flow>

  <flow id="car64" type="car" departPos="base" number="1" begin="0" end="100000" from="M8L8" to="L10M10">
    <param key="has.btsender.device" value="true"/> 
  </flow>

  <flow id="car65" type="car" departPos="base" number="1" begin="0" end="100000" from="A10B10" to="K1K0">
    <param key="has.btsender.device" value="true"/> 
  </flow>

  <flow id="car66" type="car" departPos="base" number="1" begin="0" end="100000" from="C0C1" to="L9M9">
    <param key="has.btsender.device" value="true"/> 
  </flow>

  <flow id="car67" type="car" departPos="base" number="1" begin="0" end="100000" from="C12C11" to="L10M10">
    <param key="has.btsender.device" value="true"/> 
  </flow>

  <flow id="car68" type="car" departPos="base" number="1" begin="0" end="100000" from="G12G11" to="D11D12">
    <param key="has.btsender.device" value="true"/> 
  </flow>

  <flow id="car69" type="car" departPos="base" number="1" begin="0" end="100000" from="H0H1" to="L3M3">
    <param key="has.btsender.device" value="true"/> 
  </flow>

  <flow id="car70" type="car" departPos="base" number="1" begin="0" end="100000" from="L12L11" to="B6A6">
    <param key="has.btsender.device" value="true"/> 
  </flow>

  <flow id="car71" type="car" departPos="base" number="1" begin="0" end="100000" from="G12G11" to="C1C0">
    <param key="has.btsender.device" value="true"/> 
  </flow>

  <flow id="car72" type="car" departPos="base" number="1" begin="0" end="100000" from="F12F11" to="H1H0">
    <param key="has.btsender.device" value="true"/> 
  </flow>

  <flow id="car73" type="car" departPos="base" number="1" begin="0" end="100000" from="A9B9" to="H11H12">
    <param key="has.btsender.device" value="true"/> 
  </flow>

  <flow id="car74" type="car" departPos="base" number="1" begin="0" end="100000" from="K0K1" to="H1H0">
    <param key="has.btsender.device" value="true"/> 
  </flow>

  <flow id="car75" type="car" departPos="base" number="1" begin="0" end="100000" from="J12J11" to="B11A11">
    <param key="has.btsender.device" value="true"/> 
  </flow>

  <flow id="car76" type="car" departPos="base" number="1" begin="0" end="100000" from="M3L3" to="E11E12">
    <param key="has.btsender.device" value="true"/> 
  </flow>

  <flow id="car77" type="car" departPos="base" number="1" begin="0" end="100000" from="I0I1" to="L6M6">
    <param key="has.btsender.device" value="true"/> 
  </flow>

  <flow id="car78" type="car" departPos="base" number="1" begin="0" end="100000" from="A7B7" to="C1C0">
    <param key="has.btsender.device" value="true"/> 
  </flow>

  <flow id="car79" type="car" departPos="base" number="1" begin="0" end="100000" from="A3B3" to="G11G12">
    <param key="has.btsender.device" value="true"/> 
  </flow>

  <flow id="car80" type="car" departPos="base" number="1" begin="0" end="100000" from="H12H11" to="L3M3">
    <param key="has.btsender.device" value="true"/> 
  </flow>

  <flow id="car81" type="car" departPos="base" number="1" begin="0" end="100000" from="D0D1" to="C11C12">
    <param key="has.btsender.device" value="true"/> 
  </flow>

  <flow id="car82" type="car" departPos="base" number="1" begin="0" end="100000" from="M6L6" to="C1C0">
    <param key="has.btsender.device" value="true"/> 
  </flow>

  <flow id="car83" type="car" departPos="base" number="1" begin="0" end="100000" from="K12K11" to="B7A7">
    <param key="has.btsender.device" value="true"/> 
  </flow>

  <flow id="car84" type="car" departPos="base" number="1" begin="0" end="100000" from="A8B8" to="L3M3">
    <param key="has.btsender.device" value="true"/> 
  </flow>

  <flow id="car85" type="car" departPos="base" number="1" begin="0" end="100000" from="I0I1" to="E11E12">
    <param key="has.btsender.device" value="true"/> 
  </flow>

  <flow id="car86" type="car" departPos="base" number="1" begin="0" end="100000" from="B12B11" to="H11H12">
    <param key="has.btsender.device" value="true"/> 
  </flow>

  <flow id="car87" type="car" departPos="base" number="1" begin="0" end="100000" from="J0J1" to="B6A6">
    <param key="has.btsender.device" value="true"/> 
  </flow>

  <flow id="car88" type="car" departPos="base" number="1" begin="0" end="100000" from="E12E11" to="E11E12">
    <param key="has.btsender.device" value="true"/> 
  </flow>

  <flow id="car89" type="car" departPos="base" number="1" begin="0" end="100000" from="E12E11" to="B1B0">
    <param key="has.btsender.device" value="true"/> 
  </flow>

  <flow id="car90" type="car" departPos="base" number="1" begin="0" end="100000" from="M5L5" to="L6M6">
    <param key="has.btsender.device" value="true"/> 
  </flow>

  <flow id="car91" type="car" departPos="base" number="1" begin="0" end="100000" from="M6L6" to="K11K12">
    <param key="has.btsender.device" value="true"/> 
  </flow>

  <flow id="car92" type="car" departPos="base" number="1" begin="0" end="100000" from="F12F11" to="L1M1">
    <param key="has.btsender.device" value="true"/> 
  </flow>

  <flow id="car93" type="car" departPos="base" number="1" begin="0" end="100000" from="A3B3" to="I1I0">
    <param key="has.btsender.device" value="true"/> 
  </flow>

  <flow id="car94" type="car" departPos="base" number="1" begin="0" end="100000" from="M10L10" to="L7M7">
    <param key="has.btsender.device" value="true"/> 
  </flow>

  <flow id="car95" type="car" departPos="base" number="1" begin="0" end="100000" from="M8L8" to="L10M10">