<routes>
  <vType id="car" vClass="passenger" speedDev="0.2" sigma="0.2" decel="4.5" accel="2.6" maxSpeed="60" length="5"/>

  <!-- receiver -->
  <vehicle id="rec1" type="car" depart="0" color="1, 0, 0" departPos="stop">
    <route edges="C1"/>
    <stop edge="C1" lane="C1_0" parking="true"/>
    <param key="has.btreceiver.device" value="true"/> 
  </vehicle>
  <vehicle id="rec2" type="car" depart="0" color="1, 0, 0" departPos="stop">
    <route edges="A2"/>
    <stop edge="A2" lane="A2_0" parking="true"/>
    <param key="has.btreceiver.device" value="true"/> 
  </vehicle>
  <vehicle id="rec3" type="car" depart="0" color="1, 0, 0" departPos="stop">
    <route edges="B0"/>
    <stop edge="B0" lane="B0_0" parking="true"/>
    <param key="has.btreceiver.device" value="true"/> 
  </vehicle>
  <vehicle id="rec4" type="car" depart="0" color="1, 0, 0" departPos="stop">
    <route edges="D0"/>
    <stop edge="D0" lane="D0_0" parking="true"/>
    <param key="has.btreceiver.device" value="true"/> 
  </vehicle>
  <vehicle id="rec5" type="car" depart="0" color="1, 0, 0" departPos="stop">
    <route edges="E20"/>
    <stop edge="E2" lane="E2_0" parking="true"/>
    <param key="has.btreceiver.device" value="true"/> 
  </vehicle>
  <!-- /receiver -->

  <!-- sender -->
  <flow id="car1" type="car" departPos="base" number="1" begin="0" end="300" from="A0" to="D2">
    <param key="has.btsender.device" value="true"/> 
  </flow>
  <flow id="car2" type="car" departPos="base" number="1" begin="0" end="300" from="A0" to="D2">
    <param key="has.btsender.device" value="true"/> 
  </flow>
  <flow id="car3" type="car" departPos="base" number="1" begin="0" end="300" from="A0" to="D2">
    <param key="has.btsender.device" value="true"/> 
  </flow>
  <flow id="car4" type="car" departPos="base" number="1" begin="0" end="300" from="A0" to="D2">
    <param key="has.btsender.device" value="true"/> 
  </flow>
  <flow id="car5" type="car" departPos="base" number="1" begin="0" end="300" from="A0" to="D2">
    <param key="has.btsender.device" value="true"/> 
  </flow>

  <flow id="car6" type="car" departPos="base" number="1" begin="0" end="300" from="C0" to="H2">
    <param key="has.btsender.device" value="true"/> 
  </flow>
  <flow id="car7" type="car" departPos="base" number="1" begin="0" end="300" from="C0" to="H2">
    <param key="has.btsender.device" value="true"/> 
  </flow>
  <flow id="car8" type="car" departPos="base" number="1" begin="0" end="300" from="C0" to="H2">
    <param key="has.btsender.device" value="true"/> 
  </flow>
  <flow id="car9" type="car" departPos="base" number="1" begin="0" end="300" from="C0" to="H2">
    <param key="has.btsender.device" value="true"/> 
  </flow>
  <flow id="car10" type="car" departPos="base" number="1" begin="0" end="300" from="C0" to="H2">
    <param key="has.btsender.device" value="true"/> 
  </flow>

  <flow id="car11" type="car" departPos="base" number="1" begin="0" end="300" from="-E2" to="-H0">
    <param key="has.btsender.device" value="true"/> 
  </flow>
  <flow id="car12" type="car" departPos="base" number="1" begin="0" end="300" from="-E2" to="-H0">
    <param key="has.btsender.device" value="true"/> 
  </flow>
  <flow id="car13" type="car" departPos="base" number="1" begin="0" end="300" from="-E2" to="-H0">
    <param key="has.btsender.device" value="true"/> 
  </flow>
  <flow id="car14" type="car" departPos="base" number="1" begin="0" end="300" from="-E2" to="-H0">
    <param key="has.btsender.device" value="true"/> 
  </flow>
  <flow id="car15" type="car" departPos="base" number="1" begin="0" end="300" from="-E2" to="-H0">
    <param key="has.btsender.device" value="true"/> 
  </flow>

  <flow id="car16" type="car" departPos="base" number="1" begin="0" end="300" from="D0" to="G2">
    <param key="has.btsender.device" value="true"/> 
  </flow>
  <flow id="car17" type="car" departPos="base" number="1" begin="0" end="300" from="D0" to="G2">
    <param key="has.btsender.device" value="true"/> 
  </flow>
  <flow id="car18" type="car" departPos="base" number="1" begin="0" end="300" from="D0" to="G2">
    <param key="has.btsender.device" value="true"/> 
  </flow>
  <flow id="car19" type="car" departPos="base" number="1" begin="0" end="300" from="D0" to="G2">
    <param key="has.btsender.device" value="true"/> 
  </flow> 
  <flow id="car20" type="car" departPos="base" number="1" begin="0" end="300" from="D0" to="G2">
    <param key="has.btsender.device" value="true"/> 
  </flow>
  <!-- sender -->

</routes>